LMFA00000001
  LIPDMAPS08271317182D

 45 44  0  0  0  0  0  0  0  0999 V2000
   16.4440    9.0927    0.0000 C   0  0  0  0  0  0  0  0  0  0  0  0
   17.6562    7.5630    0.0000 O   0  0  0  0  0  0  0  0  0  0  0  0
   16.4440    9.8589    0.0000 O   0  0  0  0  0  0  0  0  0  0  0  0
   15.7757    8.7097    0.0000 C   0  0  0  0  0  0  0  0  0  0  0  0
   15.1072    9.0927    0.0000 C   0  0  0  0  0  0  0  0  0  0  0  0
   14.4385    8.7097    0.0000 C   0  0  0  0  0  0  0  0  0  0  0  0
   13.7699    9.0927    0.0000 C   0  0  0  0  0  0  0  0  0  0  0  0
   13.1013    9.4758    0.0000 C   0  0  0  0  0  0  0  0  0  0  0  0
   12.4326    9.8589    0.0000 C   0  0  0  0  0  0  0  0  0  0  0  0
   11.7642    9.4759    0.0000 C   0  0  0  0  0  0  0  0  0  0  0  0
   11.0955    9.8589    0.0000 C   0  0  0  0  0  0  0  0  0  0  0  0
   10.4269    9.4759    0.0000 C   0  0  0  0  0  0  0  0  0  0  0  0
    9.7583    9.8589    0.0000 C   0  0  0  0  0  0  0  0  0  0  0  0
    9.0896    9.4759    0.0000 C   0  0  0  0  0  0  0  0  0  0  0  0
    8.4210    9.8589    0.0000 C   0  0  0  0  0  0  0  0  0  0  0  0
    7.7524    9.4759    0.0000 C   0  0  0  0  0  0  0  0  0  0  0  0
    7.0839    9.8589    0.0000 C   0  0  0  0  0  0  0  0  0  0  0  0
    6.4152    9.4759    0.0000 C   0  0  0  0  0  0  0  0  0  0  0  0
    5.7466    9.8589    0.0000 C   0  0  0  0  0  0  0  0  0  0  0  0
    5.0780    9.4759    0.0000 C   0  0  0  0  0  0  0  0  0  0  0  0
    9.0896    8.7097    0.0000 C   0  0  0  0  0  0  0  0  0  0  0  0
   16.3707    6.0144    0.0000 C   0  0  0  0  0  0  0  0  0  0  0  0
   16.3584    5.2483    0.0000 O   0  0  0  0  0  0  0  0  0  0  0  0
   15.7088    6.4081    0.0000 C   0  0  0  0  0  0  0  0  0  0  0  0
   15.0340    6.0359    0.0000 C   0  0  0  0  0  0  0  0  0  0  0  0
   14.3717    6.4297    0.0000 C   0  0  0  0  0  0  0  0  0  0  0  0
   13.6970    6.0576    0.0000 C   0  0  0  0  0  0  0  0  0  0  0  0
   13.0223    5.6854    0.0000 C   0  0  0  0  0  0  0  0  0  0  0  0
   12.3475    5.3132    0.0000 C   0  0  0  0  0  0  0  0  0  0  0  0
   11.6852    5.7070    0.0000 C   0  0  0  0  0  0  0  0  0  0  0  0
   11.0105    5.3348    0.0000 C   0  0  0  0  0  0  0  0  0  0  0  0
   10.3482    5.7285    0.0000 C   0  0  0  0  0  0  0  0  0  0  0  0
    9.6735    5.3564    0.0000 C   0  0  0  0  0  0  0  0  0  0  0  0
    9.0111    5.7502    0.0000 C   0  0  0  0  0  0  0  0  0  0  0  0
    8.3364    5.3780    0.0000 C   0  0  0  0  0  0  0  0  0  0  0  0
    7.6741    5.7718    0.0000 C   0  0  0  0  0  0  0  0  0  0  0  0
    6.9994    5.3997    0.0000 C   0  0  0  0  0  0  0  0  0  0  0  0
    6.3370    5.7935    0.0000 C   0  0  0  0  0  0  0  0  0  0  0  0
    5.6623    5.4213    0.0000 C   0  0  0  0  0  0  0  0  0  0  0  0
    5.0000    5.8150    0.0000 C   0  0  0  0  0  0  0  0  0  0  0  0
    9.0235    6.5162    0.0000 C   0  0  0  0  0  0  0  0  0  0  0  0
   15.7757    7.9437    0.0000 O   0  0  0  0  0  0  0  0  0  0  0  0
   15.1086    7.5585    0.0000 C   0  0  0  0  0  0  0  0  0  0  0  0
   15.7212    7.1740    0.0000 O   0  0  0  0  0  0  0  0  0  0  0  0
   16.3945    7.5485    0.0000 C   0  0  0  0  0  0  0  0  0  0  0  0
  2  1  1  0  0  0  0
  1  3  2  0  0  0  0
  1  4  1  0  0  0  0
  4  5  1  0  0  0  0
  5  6  1  0  0  0  0
  6  7  1  0  0  0  0
  7  8  3  0  0  0  0
  8  9  1  0  0  0  0
  9 10  1  0  0  0  0
 10 11  1  0  0  0  0
 11 12  1  0  0  0  0
 12 13  1  0  0  0  0
 13 14  1  0  0  0  0
 14 15  1  0  0  0  0
 15 16  1  0  0  0  0
 16 17  1  0  0  0  0
 17 18  1  0  0  0  0
 18 19  1  0  0  0  0
 19 20  2  0  0  0  0
 14 21  1  0  0  0  0
 22 23  2  0  0  0  0
 22 24  1  0  0  0  0
 24 25  1  0  0  0  0
 25 26  1  0  0  0  0
 26 27  1  0  0  0  0
 27 28  3  0  0  0  0
 28 29  1  0  0  0  0
 29 30  1  0  0  0  0
 30 31  1  0  0  0  0
 31 32  1  0  0  0  0
 32 33  1  0  0  0  0
 33 34  1  0  0  0  0
 34 35  1  0  0  0  0
 35 36  1  0  0  0  0
 36 37  1  0  0  0  0
 37 38  1  0  0  0  0
 38 39  1  0  0  0  0
 39 40  2  0  0  0  0
 34 41  1  0  0  0  0
  2 22  1  0  0  0  0
  4 42  1  0  0  0  0
 42 43  1  0  0  0  0
 24 44  1  0  0  0  0
 44 45  1  0  0  0  0
M  STY  2   1 SUP   2 SUP
M  SAL   1  2  42  43
M  SBL   1  1  41
M  SMT   1 OCH3
M  SAL   2  2  44  45
M  SBL   2  1  43
M  SMT   2 OCH3
M  END
> <PUBCHEM_SUBSTANCE_URL>
http://pubchem.ncbi.nlm.nih.gov/summary/summary.cgi?sid=74380251

> <LIPID_MAPS_CMPD_URL>
http://www.lipidmaps.org/data/LMSDRecord.php?LMID=LMFA00000001

> <LM_ID>
LMFA00000001

> <SYSTEMATIC_NAME>
2-methoxy-12-methyloctadec-17-en-5-ynoyl anhydride

> <SYNONYMS>
Acetylenic acids

> <CATEGORY>
Fatty Acyls [FA]

> <MAIN_CLASS>
Other Fatty Acyls [FA00]

> <EXACT_MASS>
626.491026

> <FORMULA>
C40H66O5

> <PUBCHEM_SID>
74380251

> <PUBCHEM_CID>
10930192

> <INCHI_KEY>
VOGBKCAANIAXCI-UHFFFAOYSA-N

> <INCHI>
InChI=1S/C40H66O5/c1-7-9-11-23-29-35(3)31-25-19-15-13-17-21-27-33-37(43-5)39(41)45-40(42)38(44-6)34-28-22-18-14-16-20-26-32-36(4)30-24-12-10-8-2/h7-8,35-38H,1-2,9-16,19-20,23-34H2,3-6H3

> <STATUS>
Active

$$$$
LMFA00000002
  LIPDMAPS08271317182D

 20 19  0  0  0  0  0  0  0  0999 V2000
   14.0520    6.8541    0.0000 C   0  0  0  0  0  0  0  0  0  0  0  0
   13.4680    6.5015    0.0000 C   0  0  0  0  0  0  0  0  0  0  0  0
   14.7930    6.4454    0.0000 O   0  0  0  0  0  0  0  0  0  0  0  0
   12.5510    7.0073    0.0000 N   0  0  0  0  0  0  0  0  0  0  0  0
   11.7588    6.5500    0.0000 C   0  0  0  0  0  0  0  0  0  0  0  0
   11.7588    5.8286    0.0000 O   0  0  0  0  0  0  0  0  0  0  0  0
   13.1258    5.9088    0.0000 H   0  0  0  0  0  0  0  0  0  0  0  0
   11.0078    6.9835    0.0000 C   0  0  0  0  0  0  0  0  0  0  0  0
   10.2568    6.5500    0.0000 C   0  0  0  0  0  0  0  0  0  0  0  0
    9.5059    6.9835    0.0000 C   0  0  0  0  0  0  0  0  0  0  0  0
    8.7549    6.5500    0.0000 C   0  0  0  0  0  0  0  0  0  0  0  0
    8.0039    6.9835    0.0000 C   0  0  0  0  0  0  0  0  0  0  0  0
    7.2530    6.5500    0.0000 C   0  0  0  0  0  0  0  0  0  0  0  0
    6.5020    6.9835    0.0000 C   0  0  0  0  0  0  0  0  0  0  0  0
    5.7510    6.5500    0.0000 C   0  0  0  0  0  0  0  0  0  0  0  0
    5.0000    6.9835    0.0000 C   0  0  0  0  0  0  0  0  0  0  0  0
   10.2568    5.7627    0.0000 O   0  0  0  0  0  0  0  0  0  0  0  0
   14.0737    5.8959    0.0000 C   0  0  0  0  0  0  0  0  0  0  0  0
   14.7163    6.0680    0.0000 O   0  0  0  0  0  0  0  0  0  0  0  0
   13.9014    5.2531    0.0000 O   0  0  0  0  0  0  0  0  0  0  0  0
  2  1  1  0  0  0  0
  1  3  1  0  0  0  0
  2  4  1  0  0  0  0
  4  5  1  0  0  0  0
  5  6  2  0  0  0  0
  2  7  1  6  0  0  0
  5  8  1  0  0  0  0
  8  9  1  0  0  0  0
  9 10  1  0  0  0  0
 10 11  1  0  0  0  0
 11 12  1  0  0  0  0
 12 13  1  0  0  0  0
 13 14  1  0  0  0  0
 14 15  1  0  0  0  0
 15 16  1  0  0  0  0
  9 17  1  1  0  0  0
  2 18  1  1  0  0  0
 18 19  2  0  0  0  0
 18 20  1  0  0  0  0
M  STY  1   1 SUP
M  SAL   1  3  18  19  20
M  SBL   1  1  17
M  SMT   1 COOH
M  END
> <PUBCHEM_SUBSTANCE_URL>
http://pubchem.ncbi.nlm.nih.gov/summary/summary.cgi?sid=74380252

> <LIPID_MAPS_CMPD_URL>
http://www.lipidmaps.org/data/LMSDRecord.php?LMID=LMFA00000002

> <LM_ID>
LMFA00000002

> <COMMON_NAME>
Serratamic acid

> <SYSTEMATIC_NAME>
N-(3S-hydroxydecanoyl)-L-serine

> <CATEGORY>
Fatty Acyls [FA]

> <MAIN_CLASS>
Other Fatty Acyls [FA00]

> <EXACT_MASS>
275.173274

> <FORMULA>
C13H25NO5

> <PUBCHEM_SID>
74380252

> <PUBCHEM_CID>
42607281

> <INCHI_KEY>
NDDJIMSGSZNACM-QWRGUYRKSA-N

> <INCHI>
InChI=1S/C13H25NO5/c1-2-3-4-5-6-7-10(16)8-12(17)14-11(9-15)13(18)19/h10-11,15-16H,2-9H2,1H3,(H,14,17)(H,18,19)/t10-,11-/m0/s1

> <STATUS>
Active

$$$$
LMFA00000003
  LIPDMAPS08271317182D

 46 45  0  0  0  0  0  0  0  0999 V2000
   20.8486    7.4144    0.0000 C   0  0  0  0  0  0  0  0  0  0  0  0
   20.2749    7.0679    0.0000 C   0  0  0  0  0  0  0  0  0  0  0  0
   21.5765    7.0127    0.0000 C   0  0  0  0  0  0  0  0  0  0  0  0
   22.2883    7.4424    0.0000 C   0  0  0  0  0  0  0  0  0  0  0  0
   23.0162    7.0409    0.0000 N   0  0  0  0  0  0  0  0  0  0  0  0
   19.3741    7.5649    0.0000 N   0  0  0  0  0  0  0  0  0  0  0  0
   18.5957    7.1155    0.0000 C   0  0  0  0  0  0  0  0  0  0  0  0
   18.5957    6.4068    0.0000 O   0  0  0  0  0  0  0  0  0  0  0  0
   17.8951    7.5200    0.0000 C   0  0  0  0  0  0  0  0  0  0  0  0
   17.1945    7.1155    0.0000 C   0  0  0  0  0  0  0  0  0  0  0  0
   16.4937    7.5200    0.0000 C   0  0  0  0  0  0  0  0  0  0  0  0
   15.7931    7.1155    0.0000 C   0  0  0  0  0  0  0  0  0  0  0  0
   15.0924    7.5200    0.0000 C   0  0  0  0  0  0  0  0  0  0  0  0
   14.3918    7.1155    0.0000 C   0  0  0  0  0  0  0  0  0  0  0  0
   13.6911    7.5200    0.0000 C   0  0  0  0  0  0  0  0  0  0  0  0
   12.9904    7.1155    0.0000 C   0  0  0  0  0  0  0  0  0  0  0  0
   12.2898    7.5200    0.0000 C   0  0  0  0  0  0  0  0  0  0  0  0
   11.5891    7.1155    0.0000 C   0  0  0  0  0  0  0  0  0  0  0  0
   10.8884    7.5200    0.0000 C   0  0  0  0  0  0  0  0  0  0  0  0
   10.1878    7.1155    0.0000 C   0  0  0  0  0  0  0  0  0  0  0  0
    9.4871    7.5200    0.0000 C   0  0  0  0  0  0  0  0  0  0  0  0
    8.7865    7.1155    0.0000 C   0  0  0  0  0  0  0  0  0  0  0  0
    8.0858    7.5200    0.0000 C   0  0  0  0  0  0  0  0  0  0  0  0
    7.3851    7.1155    0.0000 C   0  0  0  0  0  0  0  0  0  0  0  0
   19.9387    6.4857    0.0000 H   0  0  0  0  0  0  0  0  0  0  0  0
   17.1945    6.4496    0.0000 O   0  0  0  0  0  0  0  0  0  0  0  0
   16.5223    6.0615    0.0000 C   0  0  0  0  0  0  0  0  0  0  0  0
   16.5223    5.2499    0.0000 O   0  0  0  0  0  0  0  0  0  0  0  0
   15.8879    6.4277    0.0000 C   0  0  0  0  0  0  0  0  0  0  0  0
   15.1102    5.9787    0.0000 C   0  0  0  0  0  0  0  0  0  0  0  0
   14.3325    6.4277    0.0000 C   0  0  0  0  0  0  0  0  0  0  0  0
   13.5548    5.9787    0.0000 C   0  0  0  0  0  0  0  0  0  0  0  0
   12.7771    6.4277    0.0000 C   0  0  0  0  0  0  0  0  0  0  0  0
   11.9993    5.9787    0.0000 C   0  0  0  0  0  0  0  0  0  0  0  0
   11.2217    6.4277    0.0000 C   0  0  0  0  0  0  0  0  0  0  0  0
   10.4440    5.9787    0.0000 C   0  0  0  0  0  0  0  0  0  0  0  0
    9.6662    6.4277    0.0000 C   0  0  0  0  0  0  0  0  0  0  0  0
    8.8886    5.9787    0.0000 C   0  0  0  0  0  0  0  0  0  0  0  0
    8.1108    6.4277    0.0000 C   0  0  0  0  0  0  0  0  0  0  0  0
    7.3331    5.9787    0.0000 C   0  0  0  0  0  0  0  0  0  0  0  0
    6.5555    6.4277    0.0000 C   0  0  0  0  0  0  0  0  0  0  0  0
    5.7777    5.9787    0.0000 C   0  0  0  0  0  0  0  0  0  0  0  0
    5.0000    6.4277    0.0000 C   0  0  0  0  0  0  0  0  0  0  0  0
   20.8698    6.4729    0.0000 C   0  0  0  0  0  0  0  0  0  0  0  0
   21.5012    6.6421    0.0000 O   0  0  0  0  0  0  0  0  0  0  0  0
   20.7007    5.8416    0.0000 O   0  0  0  0  0  0  0  0  0  0  0  0
  2  1  1  0  0  0  0
  1  3  1  0  0  0  0
  3  4  1  0  0  0  0
  4  5  1  0  0  0  0
  2  6  1  0  0  0  0
  6  7  1  0  0  0  0
  7  8  2  0  0  0  0
  7  9  1  0  0  0  0
  9 10  1  0  0  0  0
 10 11  1  0  0  0  0
 11 12  1  0  0  0  0
 12 13  1  0  0  0  0
 13 14  1  0  0  0  0
 14 15  1  0  0  0  0
 15 16  1  0  0  0  0
 16 17  1  0  0  0  0
 17 18  1  0  0  0  0
 18 19  1  0  0  0  0
 19 20  1  0  0  0  0
 20 21  1  0  0  0  0
 21 22  1  0  0  0  0
 22 23  1  0  0  0  0
 23 24  1  0  0  0  0
  2 25  1  6  0  0  0
 10 26  1  0  0  0  0
 26 27  1  0  0  0  0
 27 28  2  0  0  0  0
 27 29  1  0  0  0  0
 29 30  1  0  0  0  0
 30 31  1  0  0  0  0
 31 32  1  0  0  0  0
 32 33  1  0  0  0  0
 33 34  1  0  0  0  0
 34 35  1  0  0  0  0
 35 36  1  0  0  0  0
 36 37  1  0  0  0  0
 37 38  1  0  0  0  0
 38 39  1  0  0  0  0
 39 40  1  0  0  0  0
 40 41  1  0  0  0  0
 41 42  1  0  0  0  0
 42 43  1  0  0  0  0
  2 44  1  1  0  0  0
 44 45  2  0  0  0  0
 44 46  1  0  0  0  0
M  STY  1   1 SUP
M  SAL   1  3  44  45  46
M  SBL   1  1  43
M  SMT   1 COOH
M  END
> <PUBCHEM_SUBSTANCE_URL>
http://pubchem.ncbi.nlm.nih.gov/summary/summary.cgi?sid=74380253

> <LIPID_MAPS_CMPD_URL>
http://www.lipidmaps.org/data/LMSDRecord.php?LMID=LMFA00000003

> <LM_ID>
LMFA00000003

> <SYSTEMATIC_NAME>
N-(3-(hexadecanoyloxy)-heptadecanoyl)-L-ornithine

> <CATEGORY>
Fatty Acyls [FA]

> <MAIN_CLASS>
Other Fatty Acyls [FA00]

> <EXACT_MASS>
638.559774

> <FORMULA>
C38H74N2O5

> <PUBCHEM_SID>
74380253

> <PUBCHEM_CID>
42607282

> <INCHI_KEY>
GSCCUVDKVJUMTG-HTIIIDOHSA-N

> <INCHI>
InChI=1S/C38H74N2O5/c1-3-5-7-9-11-13-15-17-19-21-23-25-27-31-37(42)45-34(33-36(41)40-35(38(43)44)30-28-32-39)29-26-24-22-20-18-16-14-12-10-8-6-4-2/h34-35H,3-33,39H2,1-2H3,(H,40,41)(H,43,44)/t34?,35-/m0/s1

> <STATUS>
Active

$$$$
LMFA00000004
  LIPDMAPS08271317182D

 30 29  0  0  0  0  0  0  0  0999 V2000
   18.2876    7.7753    0.0000 C   0  0  0  0  0  0  0  0  0  0  0  0
   19.0633    8.2231    0.0000 N   0  0  0  0  0  0  0  0  0  0  0  0
   18.2876    6.8797    0.0000 O   0  0  0  0  0  0  0  0  0  0  0  0
   17.5063    8.2231    0.0000 C   0  0  0  0  0  0  0  0  0  0  0  0
   16.7247    7.7753    0.0000 C   0  0  0  0  0  0  0  0  0  0  0  0
   15.9430    8.2231    0.0000 C   0  0  0  0  0  0  0  0  0  0  0  0
   15.1615    7.7753    0.0000 C   0  0  0  0  0  0  0  0  0  0  0  0
   14.3798    8.2231    0.0000 C   0  0  0  0  0  0  0  0  0  0  0  0
   13.5981    7.7753    0.0000 C   0  0  0  0  0  0  0  0  0  0  0  0
   12.8166    8.2231    0.0000 C   0  0  0  0  0  0  0  0  0  0  0  0
   12.0349    7.7753    0.0000 C   0  0  0  0  0  0  0  0  0  0  0  0
   11.2532    7.7753    0.0000 C   0  0  0  0  0  0  0  0  0  0  0  0
   10.4716    8.2231    0.0000 C   0  0  0  0  0  0  0  0  0  0  0  0
    9.6899    7.7753    0.0000 C   0  0  0  0  0  0  0  0  0  0  0  0
    8.9082    7.7753    0.0000 C   0  0  0  0  0  0  0  0  0  0  0  0
    8.1266    8.2231    0.0000 C   0  0  0  0  0  0  0  0  0  0  0  0
    7.3450    7.7753    0.0000 C   0  0  0  0  0  0  0  0  0  0  0  0
    6.5634    7.7753    0.0000 C   0  0  0  0  0  0  0  0  0  0  0  0
    5.7817    8.2231    0.0000 C   0  0  0  0  0  0  0  0  0  0  0  0
    5.0000    7.7753    0.0000 C   0  0  0  0  0  0  0  0  0  0  0  0
   19.6931    8.9755    0.0000 O   0  0  0  0  0  0  0  0  0  0  0  0
   20.0534    8.3514    0.0000 C   0  0  0  0  0  0  0  0  0  0  0  0
   19.6931    7.7273    0.0000 C   0  0  0  0  0  0  0  0  0  0  0  0
   20.0534    7.1032    0.0000 C   0  0  0  0  0  0  0  0  0  0  0  0
   19.6931    6.4791    0.0000 C   0  0  0  0  0  0  0  0  0  0  0  0
   20.0534    5.8549    0.0000 C   0  0  0  0  0  0  0  0  0  0  0  0
   20.7066    8.3514    0.0000 O   0  0  0  0  0  0  0  0  0  0  0  0
   19.7027    5.2475    0.0000 O   0  0  0  0  0  0  0  0  0  0  0  0
   20.7485    5.6688    0.0000 N   0  0  0  0  0  0  0  0  0  0  0  0
   20.3917    7.7273    0.0000 H   0  0  0  0  0  0  0  0  0  0  0  0
  2  1  1  0  0  0  0
  1  3  2  0  0  0  0
  1  4  1  0  0  0  0
  4  5  1  0  0  0  0
  5  6  1  0  0  0  0
  6  7  1  0  0  0  0
  7  8  1  0  0  0  0
  8  9  1  0  0  0  0
  9 10  1  0  0  0  0
 10 11  1  0  0  0  0
 11 12  2  0  0  0  0
 12 13  1  0  0  0  0
 13 14  1  0  0  0  0
 14 15  2  0  0  0  0
 15 16  1  0  0  0  0
 16 17  1  0  0  0  0
 17 18  2  0  0  0  0
 18 19  1  0  0  0  0
 19 20  1  0  0  0  0
 21 22  2  0  0  0  0
 22 23  1  0  0  0  0
 23 24  1  0  0  0  0
 24 25  1  0  0  0  0
 25 26  1  0  0  0  0
 23  2  1  6  0  0  0
 22 27  1  0  0  0  0
 26 28  2  0  0  0  0
 26 29  1  0  0  0  0
 23 30  1  1  0  0  0
M  END
> <PUBCHEM_SUBSTANCE_URL>
http://pubchem.ncbi.nlm.nih.gov/summary/summary.cgi?sid=74380254

> <LIPID_MAPS_CMPD_URL>
http://www.lipidmaps.org/data/LMSDRecord.php?LMID=LMFA00000004

> <LM_ID>
LMFA00000004

> <COMMON_NAME>
N-linolenoyl-glutamine

> <SYSTEMATIC_NAME>
N-(9Z,12Z,15Z-octadecatrienoyl)-glutamine

> <CATEGORY>
Fatty Acyls [FA]

> <MAIN_CLASS>
Other Fatty Acyls [FA00]

> <EXACT_MASS>
406.283158

> <FORMULA>
C23H38N2O4

> <PUBCHEM_SID>
74380254

> <PUBCHEM_CID>
5470079

> <INCHI_KEY>
FEFAAEYMDHYUFL-IWFQAGGASA-N

> <INCHI>
InChI=1S/C23H38N2O4/c1-2-3-4-5-6-7-8-9-10-11-12-13-14-15-16-17-22(27)25-20(23(28)29)18-19-21(24)26/h3-4,6-7,9-10,20H,2,5,8,11-19H2,1H3,(H2,24,26)(H,25,27)(H,28,29)/b4-3-,7-6-,10-9-/t20-/m0/s1

> <STATUS>
Active

$$$$
LMFA00000005
  LIPDMAPS08271317182D

 45 44  0  0  0  0  0  0  0  0999 V2000
    7.5246    7.4618    0.0000 C   0  0  0  0  0  0  0  0  0  0  0  0
    8.2657    7.0339    0.0000 C   0  0  0  0  0  0  0  0  0  0  0  0
    9.0067    7.4618    0.0000 C   0  0  0  0  0  0  0  0  0  0  0  0
    9.7478    7.0339    0.0000 C   0  0  0  0  0  0  0  0  0  0  0  0
   10.4888    7.4618    0.0000 C   0  0  0  0  0  0  0  0  0  0  0  0
   11.2298    7.0339    0.0000 C   0  0  0  0  0  0  0  0  0  0  0  0
   11.9709    7.4618    0.0000 C   0  0  0  0  0  0  0  0  0  0  0  0
   12.7119    7.0339    0.0000 C   0  0  0  0  0  0  0  0  0  0  0  0
   13.4530    7.4618    0.0000 C   0  0  0  0  0  0  0  0  0  0  0  0
   14.1940    7.0339    0.0000 C   0  0  0  0  0  0  0  0  0  0  0  0
   14.9351    7.4618    0.0000 C   0  0  0  0  0  0  0  0  0  0  0  0
   15.6761    7.0339    0.0000 C   0  0  0  0  0  0  0  0  0  0  0  0
   16.4171    7.4618    0.0000 C   0  0  0  0  0  0  0  0  0  0  0  0
   17.1582    7.0339    0.0000 C   0  0  0  0  0  0  0  0  0  0  0  0
   17.8993    7.4618    0.0000 C   0  0  0  0  0  0  0  0  0  0  0  0
   18.6403    7.0339    0.0000 C   0  0  0  0  0  0  0  0  0  0  0  0
   19.3813    7.4618    0.0000 N   0  0  0  0  0  0  0  0  0  0  0  0
   18.6403    6.3055    0.0000 O   0  0  0  0  0  0  0  0  0  0  0  0
   17.1582    6.2424    0.0000 O   0  0  0  0  0  0  0  0  0  0  0  0
   16.4295    5.8216    0.0000 C   0  0  0  0  0  0  0  0  0  0  0  0
   15.6634    6.2638    0.0000 C   0  0  0  0  0  0  0  0  0  0  0  0
   14.8973    5.8216    0.0000 C   0  0  0  0  0  0  0  0  0  0  0  0
   14.1313    6.2638    0.0000 C   0  0  0  0  0  0  0  0  0  0  0  0
   13.3653    5.8216    0.0000 C   0  0  0  0  0  0  0  0  0  0  0  0
   12.5992    6.2638    0.0000 C   0  0  0  0  0  0  0  0  0  0  0  0
   11.8332    5.8216    0.0000 C   0  0  0  0  0  0  0  0  0  0  0  0
   11.0672    6.2638    0.0000 C   0  0  0  0  0  0  0  0  0  0  0  0
   10.3011    5.8216    0.0000 C   0  0  0  0  0  0  0  0  0  0  0  0
    9.5351    6.2638    0.0000 C   0  0  0  0  0  0  0  0  0  0  0  0
    8.7691    5.8216    0.0000 C   0  0  0  0  0  0  0  0  0  0  0  0
    8.0030    6.2638    0.0000 C   0  0  0  0  0  0  0  0  0  0  0  0
    7.2370    5.8216    0.0000 C   0  0  0  0  0  0  0  0  0  0  0  0
    6.4709    6.2638    0.0000 C   0  0  0  0  0  0  0  0  0  0  0  0
    5.7050    5.8216    0.0000 C   0  0  0  0  0  0  0  0  0  0  0  0
    8.2657    6.3679    0.0000 C   0  0  0  0  0  0  0  0  0  0  0  0
   19.9901    8.1311    0.0000 O   0  0  0  0  0  0  0  0  0  0  0  0
   20.3324    7.5382    0.0000 C   0  0  0  0  0  0  0  0  0  0  0  0
   19.9901    6.9454    0.0000 C   0  0  0  0  0  0  0  0  0  0  0  0
   20.3324    6.3526    0.0000 C   0  0  0  0  0  0  0  0  0  0  0  0
   19.9901    5.7597    0.0000 O   0  0  0  0  0  0  0  0  0  0  0  0
   20.9529    7.5382    0.0000 O   0  0  0  0  0  0  0  0  0  0  0  0
   20.6538    6.9454    0.0000 H   0  0  0  0  0  0  0  0  0  0  0  0
   16.4295    5.0000    0.0000 O   0  0  0  0  0  0  0  0  0  0  0  0
    5.0000    6.2385    0.0000 C   0  0  0  0  0  0  0  0  0  0  0  0
    5.7050    5.0848    0.0000 C   0  0  0  0  0  0  0  0  0  0  0  0
  1  2  1  0  0  0  0
  2  3  1  0  0  0  0
  3  4  1  0  0  0  0
  4  5  1  0  0  0  0
  5  6  1  0  0  0  0
  6  7  1  0  0  0  0
  7  8  1  0  0  0  0
  8  9  1  0  0  0  0
  9 10  1  0  0  0  0
 10 11  1  0  0  0  0
 11 12  1  0  0  0  0
 12 13  1  0  0  0  0
 13 14  1  0  0  0  0
 14 15  1  0  0  0  0
 15 16  1  0  0  0  0
 16 17  1  0  0  0  0
 16 18  2  0  0  0  0
 14 19  1  0  0  0  0
 19 20  1  0  0  0  0
 20 21  1  0  0  0  0
 21 22  1  0  0  0  0
 22 23  1  0  0  0  0
 23 24  1  0  0  0  0
 24 25  1  0  0  0  0
 25 26  1  0  0  0  0
 26 27  1  0  0  0  0
 27 28  1  0  0  0  0
 28 29  1  0  0  0  0
 29 30  1  0  0  0  0
 30 31  1  0  0  0  0
 31 32  1  0  0  0  0
 32 33  1  0  0  0  0
 33 34  1  0  0  0  0
  2 35  1  0  0  0  0
 36 37  2  0  0  0  0
 37 38  1  0  0  0  0
 38 39  1  0  0  0  0
 39 40  1  0  0  0  0
 37 41  1  0  0  0  0
 38 42  1  1  0  0  0
 38 17  1  6  0  0  0
 20 43  2  0  0  0  0
 34 44  1  0  0  0  0
 34 45  1  0  0  0  0
M  END
> <PUBCHEM_SUBSTANCE_URL>
http://pubchem.ncbi.nlm.nih.gov/summary/summary.cgi?sid=74380255

> <LIPID_MAPS_CMPD_URL>
http://www.lipidmaps.org/data/LMSDRecord.php?LMID=LMFA00000005

> <LM_ID>
LMFA00000005

> <SYSTEMATIC_NAME>
N-(3-(15-methyl-hexadecanoyloxy)-13-methyl-tetradecanoyl)-L-serine

> <CATEGORY>
Fatty Acyls [FA]

> <MAIN_CLASS>
Other Fatty Acyls [FA00]

> <EXACT_MASS>
625.528140

> <FORMULA>
C37H71NO6

> <PUBCHEM_SID>
74380255

> <PUBCHEM_CID>
42607283

> <INCHI_KEY>
WTGXHHUORCSXNB-DNKZHYAASA-N

> <INCHI>
InChI=1S/C37H71NO6/c1-31(2)25-21-17-13-9-6-5-7-12-16-20-24-28-36(41)44-33(29-35(40)38-34(30-39)37(42)43)27-23-19-15-11-8-10-14-18-22-26-32(3)4/h31-34,39H,5-30H2,1-4H3,(H,38,40)(H,42,43)/t33?,34-/m0/s1

> <STATUS>
Active

$$$$
LMFA01050004
  LIPDMAPS08271317172D

  7  6  0  0  0  0  0  0  0  0999 V2000
    5.7144    6.2375    0.0000 C   0  0  0  0  0  0  0  0  0  0  0  0
    6.4289    5.8249    0.0000 C   0  0  0  0  0  0  0  0  0  0  0  0
    7.1434    6.2375    0.0000 C   0  0  0  0  0  0  0  0  0  0  0  0
    7.8579    5.8249    0.0000 O   0  0  0  0  0  0  0  0  0  0  0  0
    7.1434    7.0625    0.0000 O   0  0  0  0  0  0  0  0  0  0  0  0
    5.0000    5.8250    0.0000 C   0  0  0  0  0  0  0  0  0  0  0  0
    6.4289    5.0000    0.0000 O   0  0  0  0  0  0  0  0  0  0  0  0
  2  1  1  0  0  0  0
  3  2  1  0  0  0  0
  4  3  1  0  0  0  0
  3  5  2  0  0  0  0
  1  6  1  0  0  0  0
  2  7  1  0  0  0  0
M  END
> <PUBCHEM_SUBSTANCE_URL>
http://pubchem.ncbi.nlm.nih.gov/summary/summary.cgi?sid=7850103

> <LIPID_MAPS_CMPD_URL>
http://www.lipidmaps.org/data/LMSDRecord.php?LMID=LMFA01050004

> <LM_ID>
LMFA01050004

> <COMMON_NAME>
(+/-)alpha-hydoxy butyric acid

> <SYSTEMATIC_NAME>
2-hydroxy-butanoic acid

> <CATEGORY>
Fatty Acyls [FA]

> <MAIN_CLASS>
Fatty Acids and Conjugates [FA01]

> <SUB_CLASS>
Hydroxy fatty acids [FA0105]

> <EXACT_MASS>
104.047345

> <FORMULA>
C4H8O3

> <LIPIDBANK_ID>
DFA0270

> <PUBCHEM_SID>
7850103

> <PUBCHEM_CID>
11266

> <KEGG_ID>
C05984

> <HMDBID>
HMDB00008

> <CHEBI_ID>
1148

> <INCHI_KEY>
AFENDNXGAFYKQO-UHFFFAOYSA-N

> <INCHI>
InChI=1S/C4H8O3/c1-2-3(5)4(6)7/h3,5H,2H2,1H3,(H,6,7)

> <STATUS>
Active

$$$$
